%nprocshared=12
%mem=24GB
#m06l/gen pseudo=read integral=ultrafine temperature=308 scrf=(read)

Title Card Required

0 4
C        2.442376000     -2.136646000      3.288723000
C        1.577067000     -1.541767000      4.216779000
C        0.375452000     -0.925605000      3.772035000
C        0.114930000     -0.917558000      2.343758000
C        2.129255000     -2.064555000      1.918533000
H       -0.412058000     -0.279936000      5.710310000
H        3.355892000     -2.658133000      3.606644000
H        1.806812000     -1.564056000      5.293237000
C       -0.595336000     -0.316900000      4.625566000
C       -1.987389000      0.105649000      2.692868000
C       -1.776515000      0.197418000      4.082382000
H       -2.555327000      0.641210000      4.719331000
N       -1.038568000     -0.411466000      1.840159000
N        1.009474000     -1.429200000      1.460842000
C        2.926190000     -2.702244000      0.873402000
C       -3.228092000      0.430398000      2.015595000
N        2.670881000     -2.610562000     -0.400300000
N       -3.396656000      0.196459000      0.734532000
Ni      -1.565275000     -0.382769000     -0.109076000
C        1.680552000      0.494246000     -0.616295000
C        2.259642000      1.236244000      0.363764000
C       -0.950401000     -0.097148000     -2.369905000
H       -1.600771000     -0.825424000     -2.886627000
C       -1.534496000      1.091941000     -1.924641000
H       -0.885469000      1.814281000     -1.392514000
C        0.465048000     -0.443340000     -2.322991000
H        0.740899000     -1.258689000     -3.015874000
C        1.494078000      0.675578000     -2.086891000
H        1.133691000      1.687820000     -2.399210000
H        2.201556000      0.855357000      1.399862000
C       -5.301435000      1.200542000      1.683426000
H       -5.321492000      2.296823000      1.508053000
H       -6.277383000      0.882310000      2.096076000
C        4.545609000     -4.026272000      0.054227000
H        4.551587000     -5.131182000      0.133721000
H        5.594215000     -3.667457000     -0.001457000
C        3.641213000     -3.488426000     -1.099397000
H        3.064521000     -4.327915000     -1.552209000
C       -4.828974000      0.407027000      0.434356000
H       -4.925203000      1.030039000     -0.479236000
O        3.958614000     -3.488685000      1.268315000
O       -4.281756000      0.931374000      2.695391000
Ni       0.775292000     -1.179223000     -0.485198000
Cl      -1.153016000     -2.698216000     -0.499581000
C        4.427926000     -2.810385000     -2.269519000
C        5.132391000     -1.525261000     -1.788843000
H        4.400413000     -0.794723000     -1.386740000
H        5.879441000     -1.729199000     -0.992323000
H        5.676038000     -1.045182000     -2.629304000
C        5.467420000     -3.819255000     -2.811007000
H        4.983431000     -4.767823000     -3.128542000
H        5.985203000     -3.394888000     -3.696516000
H        6.250062000     -4.067153000     -2.063569000
C        3.439521000     -2.472819000     -3.402716000
H        2.655500000     -1.779244000     -3.047255000
H        3.966917000     -1.993925000     -4.254312000
H        2.936991000     -3.387139000     -3.784105000
C       -5.597787000     -0.939328000      0.173117000
C       -5.530603000     -1.870729000      1.402037000
H       -4.482285000     -2.142878000      1.642827000
H       -5.988145000     -1.415309000      2.305435000
H       -6.079524000     -2.813585000      1.196724000
C       -4.970247000     -1.652166000     -1.043142000
H       -5.023025000     -1.013654000     -1.949046000
H       -3.905704000     -1.908840000     -0.864413000
H       -5.515770000     -2.595212000     -1.258781000
C       -7.069369000     -0.598901000     -0.153628000
H       -7.140583000      0.083403000     -1.027349000
H       -7.630238000     -1.524241000     -0.401623000
H       -7.594177000     -0.117789000      0.698770000
C        2.963825000      2.527581000      0.254002000
C        3.340024000      3.201864000      1.444407000
C        3.311356000      3.161497000     -0.973846000
C        4.008638000      4.436909000      1.434539000
H        3.095908000      2.739773000      2.415619000
C        3.976836000      4.390235000     -1.000425000
H        3.069073000      2.678503000     -1.930682000
C        4.331782000      5.047003000      0.202110000
H        4.273216000      4.912581000      2.389792000
H        4.243150000      4.868821000     -1.955834000
C        5.362661000      6.939980000      1.248228000
H        4.483250000      7.208696000      1.875898000
H        6.076002000      6.348448000      1.865310000
H        5.862003000      7.868527000      0.913030000
O        4.978431000      6.242890000      0.069434000
H        2.432174000      0.475805000     -2.654125000
C       -2.846234000      1.631414000     -2.316316000
C       -3.684324000      1.021639000     -3.287826000
C       -3.279968000      2.861870000     -1.752623000
C       -4.905641000      1.604743000     -3.657793000
H       -3.365949000      0.087269000     -3.775639000
C       -4.500202000      3.446136000     -2.125659000
H       -2.638708000      3.363156000     -1.008921000
C       -5.325360000      2.818252000     -3.077935000
H       -5.533290000      1.112230000     -4.417881000
H       -4.807977000      4.402544000     -1.673012000
H       -6.280802000      3.277048000     -3.377478000

H C N O Cl 0
def2TZVP
****
Ni 0
LANL2DZ
****

Ni 0
LANL2DZ

Eps=4.5

