%nprocshared=12
%mem=24GB
#m06l/gen pseudo=read integral=ultrafine temperature=308 scrf=(read)

Title Card Required

0 2
C        3.131774000     -0.194635000      3.012918000
C        2.279053000      0.623726000      3.754733000
C        0.918410000      0.774005000      3.354084000
C        0.521067000      0.146152000      2.114162000
C        2.624784000     -0.862884000      1.875518000
H        0.174445000      1.945677000      5.048364000
H        4.173509000     -0.365471000      3.320231000
H        2.634914000      1.125718000      4.667517000
C       -0.091049000      1.455126000      4.099413000
C       -1.708809000      0.822727000      2.412305000
C       -1.413065000      1.434532000      3.651203000
H       -2.226938000      1.877864000      4.243070000
N       -0.736076000      0.286132000      1.612283000
N        1.348854000     -0.675877000      1.420790000
C        3.300376000     -1.928142000      1.153300000
C       -3.023630000      0.608737000      1.839424000
N        2.709147000     -2.548322000      0.162620000
N       -3.154442000     -0.034750000      0.701939000
Ni      -1.249530000     -0.038702000     -0.227207000
C        0.065082000      1.164872000     -1.124702000
C        0.275592000      2.430547000     -0.639255000
C       -1.222543000     -0.768860000     -2.139269000
H       -1.962616000     -1.555446000     -2.348623000
C       -1.486850000      0.675596000     -2.252614000
H       -0.838582000      1.181071000     -2.999949000
C        0.158774000     -1.069192000     -1.927935000
H        0.567883000     -2.020928000     -2.310076000
C        0.999191000      0.207367000     -1.848249000
H        1.287030000      0.582288000     -2.866501000
H       -0.586684000      2.908453000     -0.137863000
C       -5.237955000      0.689224000      1.560597000
H       -5.581692000      1.640456000      1.102749000
H       -6.063850000      0.255425000      2.155712000
C        4.692319000     -3.649721000      0.847820000
H        4.545097000     -4.473140000      1.577149000
H        5.736128000     -3.675280000      0.481991000
C        3.612546000     -3.639437000     -0.276090000
H        3.029050000     -4.585030000     -0.266580000
C       -4.604102000     -0.277265000      0.521187000
H       -4.893140000      0.018964000     -0.507851000
O        4.500798000     -2.390167000      1.560857000
O       -4.146090000      1.005045000      2.478151000
Ni       0.704825000     -1.942889000      0.012384000
Cl      -0.370568000     -3.944556000     -0.205356000
C        4.190664000     -3.469123000     -1.724415000
C        5.020356000     -2.173600000     -1.845665000
H        4.404890000     -1.279794000     -1.612265000
H        5.901816000     -2.168922000     -1.170568000
H        5.401976000     -2.056651000     -2.881556000
C        5.075049000     -4.699704000     -2.031820000
H        4.493408000     -5.642716000     -1.951880000
H        5.472257000     -4.635766000     -3.066254000
H        5.948245000     -4.778827000     -1.350657000
C        3.032977000     -3.432931000     -2.741302000
H        2.419013000     -2.521752000     -2.611267000
H        3.430152000     -3.427095000     -3.778068000
H        2.366005000     -4.313499000     -2.633743000
C       -4.991776000     -1.790230000      0.700013000
C       -4.633589000     -2.297239000      2.113096000
H       -3.541947000     -2.227443000      2.298121000
H       -5.159883000     -1.733368000      2.911976000
H       -4.920421000     -3.364193000      2.220640000
C       -4.243800000     -2.640367000     -0.348012000
H       -4.471120000     -2.297426000     -1.379580000
H       -3.145305000     -2.607931000     -0.202228000
H       -4.560505000     -3.702019000     -0.273678000
C       -6.512470000     -1.925813000      0.458280000
H       -6.795703000     -1.558303000     -0.551257000
H       -6.816862000     -2.991140000      0.526000000
H       -7.114287000     -1.366017000      1.205066000
C        1.484878000      3.257554000     -0.639594000
C        1.468621000      4.484481000      0.079241000
C        2.698267000      2.939757000     -1.321012000
C        2.576011000      5.344214000      0.135445000
H        0.548849000      4.771973000      0.615508000
C        3.808232000      3.786168000     -1.273800000
H        2.773461000      2.017484000     -1.912641000
C        3.765993000      4.998549000     -0.543805000
H        2.501358000      6.279413000      0.708644000
H        4.736463000      3.530251000     -1.808201000
C        4.908298000      6.987453000      0.148966000
H        4.141654000      7.693365000     -0.242512000
H        4.735909000      6.838639000      1.238677000
H        5.912023000      7.428221000      0.000665000
O        4.902781000      5.754419000     -0.560717000
H        1.942551000      0.052438000     -1.285045000
C       -2.850582000      1.284656000     -2.357681000
C       -3.971640000      0.531309000     -2.783024000
C       -3.017777000      2.681702000     -2.181744000
C       -5.214154000      1.149626000     -3.014384000
H       -3.865890000     -0.548713000     -2.966016000
C       -4.262417000      3.294941000     -2.393889000
H       -2.152019000      3.290875000     -1.878879000
C       -5.369826000      2.532181000     -2.812533000
H       -6.065623000      0.542322000     -3.361653000
H       -4.366306000      4.381678000     -2.243350000
H       -6.343273000      3.015277000     -2.992427000

H C N O Cl 0
def2TZVP
****
Ni 0
LANL2DZ
****

Ni 0
LANL2DZ

Eps=4.5

