%nprocshared=12
%mem=24GB
%chk=Pro_R_E_tsd1.chk
#opt=(calcfc,ts,noeigen) freq=noraman bp86/gen pseudo=read integral=ultrafine temperature=308 scrf=(read)

Title Card Required

0 2
C 1.18500000 0.59500000 3.86300000
C 0.00000000 1.18600000 4.28900000
C -1.13500000 1.19300000 3.42900000
C -0.95500000 0.67600000 2.10300000
C 1.26800000 0.07900000 2.55600000
H -2.62000000 2.04300000 4.77900000
H 2.04200000 0.48800000 4.53000000
H -0.09200000 1.58000000 5.30400000
C -2.44300000 1.62400000 3.78500000
C -3.24000000 0.87100000 1.63600000
C -3.49600000 1.44900000 2.89300000
H -4.52000000 1.71800000 3.15800000
N -1.97800000 0.55100000 1.21800000
N 0.24600000 0.22400000 1.65200000
C 2.28400000 -0.82200000 2.05500000
C -4.21400000 0.43100000 0.66300000
N 2.12800000 -1.44000000 0.91100000
N -3.83900000 -0.35000000 -0.32000000
Ni -1.79700000 -0.44600000 -0.42600000
C 0.68100000 0.88200000 -1.53000000
C 1.82500000 1.61600000 -1.75300000
C -1.65100000 0.46600000 -2.16900000
H -2.63500000 0.70800000 -2.58300000
C -0.59100000 1.54400000 -2.11800000
H -0.35900000 1.80700000 -3.17500000
C -1.09900000 -0.83500000 -2.23400000
H -1.60500000 -1.68400000 -2.70100000
C 0.39900000 -0.84900000 -2.06800000
H 1.00400000 -0.78100000 -2.98200000
H 1.65300000 2.56100000 -2.29500000
C -6.16000000 0.16900000 -0.42300000
H -6.51800000 0.99500000 -1.05400000
H -7.01700000 -0.41600000 -0.06400000
C 4.13000000 -2.07300000 1.98400000
H 4.54800000 -2.84500000 2.64100000
H 4.93800000 -1.48500000 1.51400000
C 3.09400000 -2.58700000 0.96800000
H 2.52400000 -3.41200000 1.44300000
C -5.05000000 -0.68900000 -1.10600000
H -4.89800000 -0.35200000 -2.14800000
O 3.34800000 -1.15800000 2.83100000
O -5.52100000 0.76700000 0.75500000
Ni 0.53300000 -0.45300000 -0.10100000
Cl -1.26600000 -2.56000000 0.52300000
C 3.64800000 -3.15600000 -0.36600000
C 4.14600000 -2.04700000 -1.30800000
H 3.33500000 -1.35500000 -1.57300000
H 4.95000000 -1.44600000 -0.85600000
H 4.54000000 -2.49100000 -2.23700000
C 4.81800000 -4.11200000 -0.02700000
H 4.51000000 -4.88800000 0.69500000
H 5.16000000 -4.62600000 -0.94000000
H 5.68600000 -3.57400000 0.39100000
C 2.54100000 -3.98700000 -1.05200000
H 1.62900000 -3.40000000 -1.23200000
H 2.89700000 -4.37100000 -2.02300000
H 2.25000000 -4.84800000 -0.42900000
C -5.33900000 -2.22600000 -1.15200000
C -5.45300000 -2.80500000 0.27300000
H -4.50000000 -2.70200000 0.81300000
H -6.25000000 -2.31800000 0.86200000
H -5.69500000 -3.87900000 0.22200000
C -4.18700000 -2.93100000 -1.89500000
H -4.07100000 -2.52900000 -2.91700000
H -3.23700000 -2.81600000 -1.35100000
H -4.39700000 -4.01000000 -1.98200000
C -6.65200000 -2.44900000 -1.93500000
H -6.59400000 -2.01400000 -2.94800000
H -6.84200000 -3.52900000 -2.04800000
H -7.53100000 -2.01700000 -1.42700000
C 3.23700000 1.44100000 -1.37000000
C 4.25900000 1.54500000 -2.33700000
C 3.64200000 1.33800000 -0.02000000
C 5.61700000 1.50100000 -1.99400000
H 3.98400000 1.65900000 -3.39000000
C 4.98800000 1.30900000 0.34300000
H 2.87800000 1.34200000 0.75900000
C 5.98900000 1.37700000 -0.64400000
H 6.36900000 1.57400000 -2.78100000
H 5.29100000 1.26300000 1.39200000
C 8.33000000 1.44300000 -1.15500000
H 8.30100000 0.61400000 -1.88500000
H 8.28100000 2.40600000 -1.69400000
H 9.26800000 1.39300000 -0.58600000
O 7.28500000 1.32900000 -0.18600000
H 0.74700000 -1.77200000 -1.54300000
C -1.05700000 2.84500000 -1.46500000
C -1.98000000 3.64800000 -2.16200000
C -0.61200000 3.28400000 -0.20800000
C -2.46100000 4.84300000 -1.61400000
H -2.31900000 3.33500000 -3.15600000
C -1.09000000 4.48100000 0.34500000
H 0.12700000 2.68700000 0.33000000
C -2.01700000 5.26400000 -0.35300000
H -3.17400000 5.45300000 -2.17700000
H -0.72700000 4.80500000 1.32400000
H -2.38400000 6.20000000 0.07700000

H C N O Cl 0
def2SVP
****
Ni 0
LANL2DZ
****

Ni 0
LANL2DZ

Eps=4.5

