%nprocshared=12
%mem=24GB
#m06l/gen pseudo=read integral=ultrafine temperature=308 scrf=(read)

Title Card Required

0 2
C        2.375427000     -2.873813000      2.522736000
C        1.395201000     -2.771417000      3.513879000
C        0.181420000     -2.095206000      3.240521000
C        0.013693000     -1.509663000      1.922831000
C        2.152313000     -2.275838000      1.267528000
H       -0.767987000     -2.409534000      5.189838000
H        3.323994000     -3.397097000      2.703192000
H        1.549397000     -3.220948000      4.507047000
C       -0.893164000     -1.986306000      4.181814000
C       -2.213206000     -0.899124000      2.479242000
C       -2.094715000     -1.405238000      3.789688000
H       -2.965029000     -1.365390000      4.460787000
N       -1.152719000     -0.874451000      1.588258000
N        0.995377000     -1.612742000      0.982028000
C        3.188007000     -2.364296000      0.217597000
C       -3.445112000     -0.472270000      1.866491000
N        3.420852000     -1.513778000     -0.724760000
N       -3.495092000     -0.186075000      0.578703000
Ni      -1.583621000      0.190085000     -0.018593000
C        0.264362000      0.739886000      0.013879000
C        0.646814000      1.704086000      0.894368000
C       -1.461715000      0.436944000     -2.223321000
H       -2.226113000     -0.212849000     -2.680517000
C       -1.884804000      1.616657000     -1.562996000
H       -1.111562000      2.344421000     -1.265292000
C       -0.073740000      0.074954000     -2.486013000
H        0.118040000     -0.709445000     -3.232849000
C        1.006075000      0.845422000     -1.926484000
H        0.910706000      1.934321000     -1.788968000
H       -0.126305000      2.011348000      1.629194000
C       -5.573974000      0.144736000      1.614870000
H       -5.686520000      1.226827000      1.839862000
H       -6.540438000     -0.365513000      1.784110000
C        4.936929000     -3.364494000     -0.786255000
H        4.917254000     -4.295848000     -1.384138000
H        5.940761000     -3.257034000     -0.321642000
C        4.477393000     -2.100643000     -1.574116000
H        3.986203000     -2.411282000     -2.527028000
C       -4.932941000     -0.105533000      0.228402000
H       -5.107403000      0.755088000     -0.447647000
O        3.959653000     -3.492404000      0.279688000
O       -4.604022000     -0.409375000      2.558363000
Ni       0.570840000     -0.919752000     -0.806501000
Cl       0.414574000     -2.966898000     -1.767149000
C        5.614707000     -1.106344000     -1.968674000
C        6.312957000     -0.531364000     -0.719024000
H        5.583572000     -0.027463000     -0.052109000
H        6.829031000     -1.315706000     -0.125951000
H        7.082459000      0.212836000     -1.013572000
C        6.638172000     -1.862206000     -2.846348000
H        6.154987000     -2.294698000     -3.748602000
H        7.437825000     -1.172990000     -3.190193000
H        7.132791000     -2.689604000     -2.294675000
C        5.004599000      0.047125000     -2.793097000
H        4.287036000      0.637317000     -2.189009000
H        5.798857000      0.737496000     -3.147402000
H        4.465358000     -0.337039000     -3.685128000
C       -5.453388000     -1.404133000     -0.497118000
C       -5.362530000     -2.645929000      0.417036000
H       -4.313899000     -2.855030000      0.713777000
H       -5.971245000     -2.544164000      1.339169000
H       -5.734177000     -3.540740000     -0.124808000
C       -4.612826000     -1.662858000     -1.763987000
H       -4.671251000     -0.806200000     -2.465978000
H       -3.547685000     -1.836059000     -1.509381000
H       -4.987743000     -2.561661000     -2.296911000
C       -6.922855000     -1.160803000     -0.909178000
H       -7.013202000     -0.276440000     -1.575120000
H       -7.318804000     -2.040270000     -1.458691000
H       -7.586243000     -0.996340000     -0.033760000
C        1.895327000      2.470991000      0.971645000
C        1.926876000      3.684816000      1.704333000
C        3.105100000      2.052503000      0.348652000
C        3.087475000      4.469047000      1.800456000
H        1.009891000      4.028747000      2.211511000
C        4.265899000      2.823454000      0.437935000
H        3.134365000      1.083070000     -0.174886000
C        4.271741000      4.044609000      1.156585000
H        3.059011000      5.404556000      2.376995000
H        5.203121000      2.493937000     -0.036341000
C        5.521911000      5.951099000      1.895137000
H        4.816390000      6.708002000      1.485014000
H        5.307853000      5.808820000      2.978124000
H        6.556995000      6.323261000      1.778544000
O        5.454400000      4.723381000      1.178077000
H        2.034147000      0.526299000     -2.168422000
C       -3.232903000      2.221143000     -1.661982000
C       -4.128640000      1.919287000     -2.718491000
C       -3.623870000      3.210786000     -0.722543000
C       -5.376650000      2.559206000     -2.813853000
H       -3.829041000      1.200316000     -3.496597000
C       -4.871897000      3.844663000     -0.813304000
H       -2.933091000      3.473090000      0.095408000
C       -5.758695000      3.518162000     -1.858365000
H       -6.050346000      2.314894000     -3.650682000
H       -5.154071000      4.605501000     -0.067981000
H       -6.735595000      4.021018000     -1.935647000

H C N O Cl 0
def2TZVP
****
Ni 0
LANL2DZ
****

Ni 0
LANL2DZ

Eps=4.5

