%nprocshared=12
%mem=64GB
#opt=(calcfc,ts,noeigen) freq=noraman bp86/gen pseudo=read integral=ultrafine temperature=308 scrf=(read)

Title Card Required

0 4
C       -1.208594000     -2.900245000     -3.226622000
C       -0.063773000     -2.607909000     -3.982200000
C        1.008831000     -1.870745000     -3.402026000
C        0.833379000     -1.401079000     -2.040904000
C       -1.293239000     -2.408395000     -1.909138000
H        2.416318000     -1.900368000     -5.081703000
H       -2.025590000     -3.510368000     -3.637872000
H        0.031896000     -2.974289000     -5.016147000
C        2.255214000     -1.584970000     -4.039377000
C        3.040620000     -0.578819000     -1.978560000
C        3.274126000     -0.954097000     -3.318692000
H        4.262996000     -0.774473000     -3.765525000
N        1.816088000     -0.743026000     -1.373366000
N       -0.308896000     -1.644663000     -1.358814000
C       -2.349530000     -2.704741000     -0.947245000
C        4.046002000     -0.101108000     -1.048475000
N       -2.408424000     -2.127723000      0.224799000
N        3.754121000      0.116199000      0.217632000
Ni       1.707317000     -0.032258000      0.521934000
C       -0.069895000      1.032303000      0.515684000
C       -1.089897000      0.992828000     -0.484562000
C        1.527610000      1.538502000      2.143315000
H        2.526120000      1.924598000      2.398635000
C        0.561926000      2.250896000      1.223118000
H       -0.222321000      2.790197000      1.824261000
C        0.889972000      0.508333000      2.797899000
H        1.423514000     -0.139443000      3.509852000
C       -0.530455000      0.300232000      2.455854000
H       -1.206321000      1.149281000      2.678948000
H       -0.738653000      0.802714000     -1.515864000
C        6.000151000      0.663723000     -0.264171000
H        6.171263000      1.743879000     -0.456390000
H        6.979966000      0.158699000     -0.165346000
C       -4.009006000     -3.884540000     -0.002965000
H       -3.826812000     -4.922750000      0.339246000
H       -5.082775000     -3.775428000     -0.254702000
C       -3.478368000     -2.806070000      0.994970000
H       -2.990923000     -3.303502000      1.863938000
C        5.021209000      0.410422000      0.919923000
H        4.899651000      1.339131000      1.520923000
O       -3.243467000     -3.678419000     -1.223386000
O        5.326459000      0.102035000     -1.430014000
Ni      -0.666975000     -0.860991000      0.479811000
Cl       0.850956000     -2.463809000      1.448005000
C       -4.583495000     -1.869930000      1.584516000
C       -5.322961000     -1.107440000      0.468087000
H       -4.615377000     -0.527778000     -0.159407000
H       -5.900046000     -1.787176000     -0.194260000
H       -6.048398000     -0.391427000      0.907347000
C       -5.577735000     -2.744764000      2.381820000
H       -5.069591000     -3.277539000      3.214015000
H       -6.374644000     -2.111309000      2.824368000
H       -6.079961000     -3.505008000      1.746806000
C       -3.924994000     -0.864989000      2.547257000
H       -3.263873000     -0.169671000      1.995881000
H       -4.697873000     -0.261370000      3.067999000
H       -3.320387000     -1.384258000      3.321450000
C        5.460314000     -0.721008000      1.915278000
C        5.645866000     -2.064510000      1.179927000
H        4.698016000     -2.394977000      0.708203000
H        6.428942000     -2.011415000      0.394411000
H        5.954132000     -2.853709000      1.897072000
C        4.376394000     -0.880028000      3.000649000
H        4.202518000      0.076585000      3.538761000
H        3.415060000     -1.216118000      2.561314000
H        4.691492000     -1.634832000      3.751632000
C        6.784089000     -0.291881000      2.586821000
H        6.674824000      0.681451000      3.112185000
H        7.091655000     -1.046679000      3.340277000
H        7.619558000     -0.195512000      1.861614000
C       -2.450790000      1.534405000     -0.439446000
C       -3.017396000      2.195021000      0.682810000
C       -3.253679000      1.468361000     -1.617340000
C       -4.302129000      2.761220000      0.642809000
H       -2.434478000      2.289517000      1.610756000
C       -4.529940000      2.027113000     -1.672487000
H       -2.845915000      0.968427000     -2.511207000
C       -5.073507000      2.681589000     -0.539170000
H       -4.688879000      3.270658000      1.536867000
H       -5.137184000      1.974263000     -2.589356000
C       -6.918703000      3.877610000      0.415234000
H       -7.041343000      3.207164000      1.295078000
H       -6.323572000      4.767152000      0.720203000
H       -7.916757000      4.211355000      0.074771000
O       -6.325895000      3.199192000     -0.687063000
H       -0.955113000     -0.652389000      2.822499000
C        1.092283000      3.284311000      0.234137000
C        0.229794000      4.319669000     -0.192433000
C        2.401844000      3.247204000     -0.288047000
C        0.661763000      5.289324000     -1.113522000
H       -0.796988000      4.364744000      0.206921000
C        2.840876000      4.220614000     -1.204250000
H        3.075193000      2.433676000      0.020122000
C        1.972526000      5.244592000     -1.622395000
H       -0.028669000      6.086822000     -1.432181000
H        3.870414000      4.176999000     -1.595147000
H        2.315874000      6.006229000     -2.340732000

H C N O Cl 0
def2SVP
****
Ni 0
LANL2DZ
****

Ni 0
LANL2DZ

Eps=4.5

