%nprocshared=12
%mem=24GB
#m06l/gen pseudo=read integral=ultrafine temperature=308 scrf=(read)

Title Card Required

0 4
C        2.596844000     -1.798087000      3.153463000
C        1.636915000     -1.398706000      4.091487000
C        0.365392000     -0.927590000      3.658446000
C        0.113230000     -0.885141000      2.230094000
C        2.286751000     -1.701114000      1.784589000
H       -0.521148000     -0.501191000      5.615048000
H        3.579404000     -2.181286000      3.463382000
H        1.851364000     -1.453587000      5.169839000
C       -0.687014000     -0.506134000      4.527001000
C       -2.097360000     -0.158828000      2.592044000
C       -1.918719000     -0.123553000      3.989335000
H       -2.756238000      0.182543000      4.632654000
N       -1.089496000     -0.505655000      1.725212000
N        1.072711000     -1.253081000      1.348014000
C        3.155599000     -2.098311000      0.682604000
C       -3.348567000      0.087586000      1.906333000
N        2.903449000     -1.743283000     -0.549593000
N       -3.472488000     -0.087542000      0.607323000
Ni      -1.504748000     -0.029340000     -0.214970000
C        0.322510000      0.632562000     -0.374004000
C        0.667993000      1.893221000     -0.034964000
C       -1.908353000     -0.442410000     -2.399797000
H       -2.909480000     -0.898685000     -2.414756000
C       -1.795351000      0.945959000     -2.166255000
H       -0.803950000      1.407253000     -2.294384000
C       -0.806657000     -1.329681000     -2.633583000
H       -1.043380000     -2.405417000     -2.643667000
C        0.552147000     -0.978445000     -2.729589000
H        0.850079000      0.056950000     -2.957804000
H       -0.189130000      2.592702000      0.086042000
C       -5.454452000      0.740673000      1.568595000
H       -5.495647000      1.840659000      1.419387000
H       -6.429942000      0.388333000      1.951931000
C        4.602930000     -3.393252000     -0.424909000
H        4.268089000     -4.445715000     -0.524047000
H        5.707872000     -3.358779000     -0.471500000
C        3.883078000     -2.433199000     -1.420165000
H        3.307906000     -3.021441000     -2.168360000
C       -4.927303000     -0.008528000      0.320575000
H       -5.091260000      0.593762000     -0.595984000
O        4.195955000     -2.929155000      0.899115000
O       -4.447316000      0.467889000      2.591372000
Ni       0.821483000     -1.180250000     -0.619631000
Cl       0.359248000     -3.581556000     -0.676728000
C        4.847553000     -1.482828000     -2.212070000
C        5.778763000     -0.705850000     -1.258335000
H        5.198080000     -0.113895000     -0.523544000
H        6.464607000     -1.373390000     -0.696415000
H        6.411646000      0.002859000     -1.831935000
C        5.691637000     -2.356515000     -3.168106000
H        5.045968000     -2.920970000     -3.874204000
H        6.374618000     -1.720402000     -3.768995000
H        6.321796000     -3.090967000     -2.623036000
C        4.021733000     -0.484209000     -3.048149000
H        3.391778000      0.160272000     -2.403510000
H        4.695497000      0.172273000     -3.637779000
H        3.356709000     -1.011463000     -3.763293000
C       -5.589310000     -1.420707000      0.095544000
C       -5.471592000     -2.310331000      1.352755000
H       -4.410465000     -2.504414000      1.612960000
H       -5.970773000     -1.865545000      2.238279000
H       -5.949736000     -3.294574000      1.166034000
C       -4.903837000     -2.140032000     -1.083461000
H       -5.005460000     -1.560595000     -2.025514000
H       -3.826366000     -2.304391000     -0.882719000
H       -5.373647000     -3.131077000     -1.254418000
C       -7.078252000     -1.199639000     -0.256379000
H       -7.190402000     -0.558223000     -1.156526000
H       -7.569032000     -2.171468000     -0.472437000
H       -7.645410000     -0.724825000      0.571605000
C        1.968622000      2.527137000      0.240143000
C        2.022932000      3.918481000      0.499257000
C        3.193145000      1.808173000      0.289704000
C        3.228484000      4.579332000      0.791121000
H        1.089579000      4.505615000      0.473667000
C        4.397934000      2.451838000      0.580962000
H        3.180177000      0.724074000      0.096607000
C        4.433299000      3.844651000      0.835048000
H        3.215650000      5.661436000      0.984551000
H        5.346185000      1.893843000      0.623165000
C        5.753362000      5.770440000      1.371776000
H        5.417456000      6.377242000      0.500875000
H        5.157490000      6.064836000      2.264965000
H        6.821601000      5.981897000      1.566723000
O        5.661418000      4.375233000      1.110837000
H        1.256955000     -1.765256000     -3.038560000
C       -2.909870000      1.914499000     -2.185469000
C       -4.191641000      1.603119000     -2.711340000
C       -2.683778000      3.244803000     -1.741292000
C       -5.205524000      2.573160000     -2.768076000
H       -4.383932000      0.598657000     -3.118738000
C       -3.700400000      4.209892000     -1.785489000
H       -1.687183000      3.518747000     -1.359978000
C       -4.969998000      3.878031000     -2.296148000
H       -6.185964000      2.310573000     -3.196657000
H       -3.498473000      5.232811000     -1.429759000
H       -5.766236000      4.637602000     -2.343036000

H C N O Cl 0
def2TZVP
****
Ni 0
LANL2DZ
****

Ni 0
LANL2DZ

Eps=4.5

