%nprocshared=12
%mem=24GB
%chk=Pro_R_E_c1_4.chk
#opt=(MaxCycles=500) freq=noraman bp86/gen pseudo=read integral=ultrafine temperature=308 scrf=(read)

Title Card Required

0 4
C       -2.619996000      2.539114000     -2.006126000
C       -1.688927000      3.582670000     -1.882197000
C       -0.364902000      3.313001000     -1.440518000
C       -0.047667000      1.937941000     -1.124271000
C       -2.230567000      1.236751000     -1.645169000
H        0.474602000      5.339547000     -1.490777000
H       -3.637181000      2.720050000     -2.380720000
H       -1.971715000      4.614560000     -2.141454000
C        0.679262000      4.279697000     -1.276056000
C        2.189429000      2.502372000     -0.613445000
C        1.945519000      3.872394000     -0.846932000
H        2.760942000      4.596978000     -0.706613000
N        1.200862000      1.553116000     -0.760485000
N       -0.980679000      0.967710000     -1.178134000
C       -3.026292000      0.021816000     -1.806074000
C        3.432683000      1.879958000     -0.235570000
N       -2.578822000     -1.144462000     -1.430718000
N        3.516462000      0.560266000     -0.170466000
Ni       1.716813000     -0.265976000     -0.392816000
C       -0.109880000     -0.995441000      0.934775000
C       -0.883549000     -0.430756000      1.907482000
C        2.010395000     -2.112416000      0.335251000
H        3.070831000     -2.220656000      0.612155000
C        0.932974000     -2.073827000      1.407232000
H        0.408004000     -3.061752000      1.419528000
C        1.564327000     -2.440492000     -0.967252000
H        2.294522000     -2.510791000     -1.790998000
C        0.184105000     -2.788115000     -1.222592000
H       -0.349456000     -3.334805000     -0.424273000
H       -0.708727000     -0.857270000      2.920130000
C        5.469168000      1.589783000      0.626641000
H        5.429525000      1.667302000      1.733798000
H        6.485401000      1.852946000      0.280264000
C       -4.545307000     -1.326710000     -2.744241000
H       -4.403031000     -1.492101000     -3.831725000
H       -5.613682000     -1.471295000     -2.494045000
C       -3.558862000     -2.159986000     -1.869339000
H       -3.019431000     -2.901371000     -2.498917000
C        4.935720000      0.228679000      0.105886000
H        4.985152000     -0.539419000      0.907333000
O       -4.204415000      0.065084000     -2.463255000
O        4.540707000      2.577887000      0.080314000
Ni      -0.460940000     -0.924322000     -1.060526000
Cl      -0.098313000     -0.746964000     -3.444342000
C       -4.234029000     -2.952302000     -0.697255000
C       -5.079475000     -2.015396000      0.189457000
H       -4.466508000     -1.184194000      0.593079000
H       -5.938799000     -1.575312000     -0.358790000
H       -5.498166000     -2.576678000      1.051162000
C       -5.131384000     -4.049417000     -1.312887000
H       -4.542761000     -4.743350000     -1.950309000
H       -5.609067000     -4.650595000     -0.511154000
H       -5.947850000     -3.625698000     -1.935458000
C       -3.138868000     -3.619971000      0.159509000
H       -2.469733000     -2.861751000      0.614689000
H       -3.597767000     -4.216558000      0.975898000
H       -2.517682000     -4.308576000     -0.451713000
C        5.718615000     -0.328903000     -1.139065000
C        5.772570000      0.709051000     -2.281303000
H        4.754064000      0.979550000     -2.629538000
H        6.298418000      1.640735000     -1.986440000
H        6.317788000      0.287019000     -3.151139000
C        5.027089000     -1.603801000     -1.658939000
H        4.959341000     -2.384323000     -0.871685000
H        4.004617000     -1.375527000     -2.019362000
H        5.598796000     -2.033324000     -2.507749000
C        7.149901000     -0.690040000     -0.680530000
H        7.134866000     -1.440330000      0.138754000
H        7.722725000     -1.126025000     -1.525172000
H        7.718677000      0.193630000     -0.322186000
C       -1.920421000      0.630465000      1.951375000
C       -3.207978000      0.336255000      2.458024000
C       -1.635230000      1.991999000      1.676929000
C       -4.194556000      1.325874000      2.621704000
H       -3.448488000     -0.702076000      2.737816000
C       -2.599751000      2.992232000      1.840875000
H       -0.618539000      2.271935000      1.366507000
C       -3.897332000      2.668550000      2.300645000
H       -5.184109000      1.039714000      3.005735000
H       -2.365108000      4.046784000      1.629095000
C       -6.086172000      3.439563000      2.897252000
H       -6.632897000      2.735436000      2.230223000
H       -6.073620000      3.019551000      3.928275000
H       -6.619560000      4.408738000      2.910949000
O       -4.774101000      3.710152000      2.419736000
H       -0.064839000     -3.104524000     -2.246875000
C        1.493709000     -1.859787000      2.806543000
C        1.211416000     -2.781168000      3.838112000
C        2.315962000     -0.749129000      3.108226000
C        1.733208000     -2.603337000      5.133592000
H        0.572591000     -3.653927000      3.621671000
C        2.840752000     -0.569594000      4.398589000
H        2.537229000     -0.016607000      2.313677000
C        2.550639000     -1.496524000      5.418474000
H        1.498701000     -3.335900000      5.922680000
H        3.478755000      0.303171000      4.613082000
H        2.959914000     -1.353894000      6.431372000

H C N O Cl 0
def2SVP
****
Ni 0
LANL2DZ
****

Ni 0
LANL2DZ

Eps=4.5

