%nprocshared=12
%mem=24GB
#m06l/gen pseudo=read integral=ultrafine temperature=308 scrf=(read)

Title Card Required

0 4
C        1.155659000     -2.948423000      3.230917000
C       -0.003742000     -2.672165000      3.970270000
C       -1.069784000     -1.931127000      3.383696000
C       -0.873767000     -1.438176000      2.033157000
C        1.258959000     -2.437378000      1.922738000
H       -2.504419000     -1.996371000      5.039563000
H        1.968239000     -3.561194000      3.646834000
H       -0.115552000     -3.054492000      4.996759000
C       -2.327249000     -1.661861000      4.005890000
C       -3.079909000     -0.621776000      1.950465000
C       -3.335621000     -1.023159000      3.278276000
H       -4.333613000     -0.856128000      3.709339000
N       -1.846116000     -0.769152000      1.359412000
N        0.280575000     -1.668942000      1.368935000
C        2.324799000     -2.724456000      0.967693000
C       -4.066541000     -0.122275000      1.018857000
N        2.393041000     -2.138040000     -0.198792000
N       -3.750778000      0.118902000     -0.236137000
Ni      -1.698789000      0.027726000     -0.493559000
C        0.094602000      1.047378000     -0.485605000
C        1.119866000      0.985186000      0.506783000
C       -1.533402000      1.558360000     -2.063571000
H       -2.530865000      1.958833000     -2.300470000
C       -0.530376000      2.279103000     -1.176713000
H        0.244016000      2.808791000     -1.795631000
C       -0.929999000      0.507749000     -2.745413000
H       -1.482959000     -0.149402000     -3.433240000
C        0.494158000      0.293396000     -2.450165000
H        1.170725000      1.136264000     -2.690252000
H        0.775649000      0.794037000      1.540159000
C       -5.991554000      0.700552000      0.226334000
H       -6.131433000      1.779946000      0.445824000
H       -6.984409000      0.228223000      0.101846000
C        3.992930000     -3.894757000      0.026191000
H        3.849076000     -4.938795000     -0.315408000
H        5.059632000     -3.748596000      0.290418000
C        3.444907000     -2.832282000     -0.979394000
H        2.935142000     -3.341026000     -1.829121000
C       -5.003184000      0.450705000     -0.949264000
H       -4.857205000      1.386696000     -1.532476000
O        3.206582000     -3.710669000      1.237164000
O       -5.349355000      0.089026000      1.385352000
Ni       0.661324000     -0.870721000     -0.455003000
Cl      -0.788435000     -2.486796000     -1.497727000
C        4.545457000     -1.916260000     -1.606501000
C        5.298545000     -1.119283000     -0.522910000
H        4.608202000     -0.468365000      0.050825000
H        5.829021000     -1.779415000      0.195738000
H        6.066199000     -0.468309000     -0.990595000
C        5.530843000     -2.820459000     -2.383106000
H        5.007429000     -3.414224000     -3.162946000
H        6.299125000     -2.200899000     -2.891177000
H        6.069554000     -3.528987000     -1.718699000
C        3.880914000     -0.939356000     -2.595178000
H        3.184083000     -0.260141000     -2.067841000
H        4.648505000     -0.316882000     -3.101260000
H        3.311688000     -1.482263000     -3.379698000
C       -5.452716000     -0.659543000     -1.964862000
C       -5.710141000     -2.000429000     -1.245353000
H       -4.791173000     -2.369613000     -0.745453000
H       -6.515622000     -1.925668000     -0.484812000
H       -6.023303000     -2.772701000     -1.978603000
C       -4.346003000     -0.855496000     -3.021057000
H       -4.130280000      0.092865000     -3.558603000
H       -3.406037000     -1.219012000     -2.557942000
H       -4.665341000     -1.603008000     -3.777416000
C       -6.740475000     -0.177173000     -2.669791000
H       -6.578930000      0.791554000     -3.189824000
H       -7.059532000     -0.918071000     -3.432193000
H       -7.589035000     -0.047835000     -1.965073000
C        2.481210000      1.528353000      0.453097000
C        3.044814000      2.177233000     -0.677055000
C        3.286539000      1.477698000      1.629764000
C        4.327790000      2.747714000     -0.645953000
H        2.461458000      2.258834000     -1.605484000
C        4.561500000      2.041183000      1.676468000
H        2.882598000      0.986298000      2.530084000
C        5.101081000      2.685231000      0.535568000
H        4.711752000      3.247025000     -1.546866000
H        5.169953000      2.000617000      2.593178000
C        6.939288000      3.878017000     -0.435895000
H        7.061996000      3.198249000     -1.308597000
H        6.340469000      4.762167000     -0.749551000
H        7.937123000      4.219015000     -0.101976000
O        6.351655000      3.210235000      0.675518000
H        0.909684000     -0.671659000     -2.792811000
C       -1.040093000      3.318226000     -0.183916000
C       -0.218229000      4.424917000      0.127047000
C       -2.296118000      3.219174000      0.451763000
C       -0.635767000      5.402930000      1.046331000
H        0.765637000      4.519242000     -0.361753000
C       -2.720410000      4.198772000      1.367632000
H       -2.940399000      2.354806000      0.228435000
C       -1.891358000      5.293875000      1.670633000
H        0.022968000      6.256569000      1.273379000
H       -3.707023000      4.104590000      1.849634000
H       -2.223015000      6.060217000      2.389424000

H C N O Cl 0
def2TZVP
****
Ni 0
LANL2DZ
****

Ni 0
LANL2DZ

Eps=4.5

