%nprocshared=12
%mem=12GB
%chk=Pro_R_E_c2.chk
#opt=(MaxCycles=500) freq=noraman bp86/gen pseudo=read integral=ultrafine temperature=308 scrf=(read)

Title Card Required

0 2
C 1.93300000 -2.46600000 3.34300000
C 0.97000000 -1.99000000 4.23300000
C -0.17700000 -1.31000000 3.74300000
C -0.24500000 -1.08000000 2.32500000
C 1.76300000 -2.23000000 1.96800000
H -1.25200000 -1.00700000 5.61600000
H 2.79500000 -3.04000000 3.68500000
H 1.06700000 -2.17400000 5.30500000
C -1.27600000 -0.86500000 4.53300000
C -2.39400000 -0.15700000 2.51600000
C -2.39400000 -0.31500000 3.91200000
H -3.28000000 -0.02800000 4.48200000
N -1.30300000 -0.45900000 1.73900000
N 0.71900000 -1.51000000 1.48000000
C 2.56600000 -2.81400000 0.90600000
C -3.51200000 0.20700000 1.68100000
N 2.30300000 -2.63200000 -0.35600000
N -3.41200000 0.08400000 0.37600000
Ni -1.52400000 -0.23100000 -0.18200000
C 1.66700000 0.37200000 -0.52100000
C 2.33500000 1.02200000 0.45800000
C -1.05400000 0.33900000 -2.02500000
H -1.84600000 0.06200000 -2.72900000
C -1.22300000 1.48200000 -1.19100000
H -0.33700000 1.86400000 -0.66900000
C 0.26800000 -0.29200000 -2.19100000
H 0.31200000 -1.02800000 -3.00200000
C 1.49400000 0.62100000 -1.99000000
H 1.32700000 1.67900000 -2.27500000
H 2.21200000 0.65700000 1.48600000
C -5.51900000 0.94800000 1.02100000
H -5.61000000 2.04400000 0.98800000
H -6.50700000 0.49800000 1.18500000
C 4.15400000 -4.10500000 -0.01100000
H 4.21900000 -5.20100000 0.01400000
H 5.16800000 -3.67800000 -0.06400000
C 3.20100000 -3.55300000 -1.11000000
H 2.56100000 -4.36700000 -1.50100000
C -4.74600000 0.37800000 -0.20200000
H -4.63400000 1.15700000 -0.97400000
O 3.56400000 -3.66800000 1.25300000
O -4.69500000 0.61400000 2.19100000
Ni 0.58500000 -1.15900000 -0.44900000
Cl -1.21700000 -2.68700000 -0.66500000
C 3.93900000 -2.92700000 -2.33200000
C 4.70100000 -1.65100000 -1.92400000
H 4.02800000 -0.91500000 -1.45800000
H 5.51000000 -1.86300000 -1.20400000
H 5.16900000 -1.18800000 -2.80800000
C 4.92600000 -3.97600000 -2.89600000
H 4.40700000 -4.91500000 -3.15700000
H 5.39900000 -3.59100000 -3.81500000
H 5.73600000 -4.21600000 -2.18800000
C 2.89900000 -2.60600000 -3.42200000
H 2.12700000 -1.92600000 -3.04200000
H 3.38200000 -2.13600000 -4.29500000
H 2.39400000 -3.52500000 -3.76700000
C -5.40200000 -0.87500000 -0.87600000
C -5.51700000 -2.04500000 0.12200000
H -4.52200000 -2.37100000 0.45900000
H -6.11900000 -1.78000000 1.00800000
H -6.00600000 -2.90700000 -0.36100000
C -4.53600000 -1.30900000 -2.07600000
H -4.44800000 -0.49300000 -2.81300000
H -3.52800000 -1.60900000 -1.75500000
H -4.99700000 -2.17200000 -2.58500000
C -6.80100000 -0.47100000 -1.39400000
H -6.74000000 0.39300000 -2.07800000
H -7.25000000 -1.30800000 -1.95200000
H -7.49800000 -0.21300000 -0.58000000
C 3.22500000 2.18800000 0.35100000
C 3.66200000 2.81900000 1.53800000
C 3.69800000 2.73400000 -0.87000000
C 4.50400000 3.93700000 1.52800000
H 3.32500000 2.42000000 2.50000000
C 4.53600000 3.84500000 -0.89600000
H 3.41700000 2.27200000 -1.81700000
C 4.94600000 4.46200000 0.30100000
H 4.80800000 4.38500000 2.47500000
H 4.89900000 4.25700000 -1.84100000
C 6.21300000 6.19900000 1.35700000
H 5.36300000 6.59900000 1.93900000
H 6.80300000 5.51700000 1.99600000
H 6.85000000 7.02900000 1.02700000
O 5.77300000 5.55100000 0.16200000
H 2.35900000 0.25300000 -2.57100000
C -2.29000000 2.48900000 -1.34300000
C -3.09700000 2.57600000 -2.50100000
C -2.49100000 3.45400000 -0.32800000
C -4.07100000 3.57300000 -2.62900000
H -2.93400000 1.87400000 -3.32300000
C -3.46600000 4.44700000 -0.45400000
H -1.86500000 3.41300000 0.56800000
C -4.26600000 4.51100000 -1.60600000
H -4.67200000 3.62800000 -3.54200000
H -3.59700000 5.18200000 0.34500000
H -5.02200000 5.29400000 -1.71000000

H C N O Cl 0
def2SVP
****
Ni 0
LANL2DZ
****

Ni 0
LANL2DZ

Eps=4.5

