%nprocshared=12
%mem=24GB
%chk=Pro_R_E_e4.chk
#opt=(MaxCycles=500) freq=noraman bp86/gen pseudo=read integral=ultrafine temperature=308 scrf=(read) scf=xqc

Title Card Required

0 4
C       -1.766433998     -3.197116155      2.045171369
C       -0.789124998     -4.162294155      1.797014369
C        0.450598002     -3.772403155      1.206241369
C        0.594173002     -2.389008155      0.794998369
C       -1.529382998     -1.862714155      1.646671369
H        1.481993002     -5.699021155      1.297749369
H       -2.694284998     -3.444524155      2.580665369
H       -0.936388998     -5.207857155      2.108676369
C        1.570339002     -4.635535155      1.027087369
C        2.842791002     -2.748325155      0.215418369
C        2.776602002     -4.118861155      0.547865369
H        3.670403002     -4.749783155      0.440006369
N        1.762896002     -1.918316155      0.289651369
N       -0.412188998     -1.485322155      0.952177369
C       -2.328898998     -0.725070155      2.078329369
C        4.050917002     -2.046613155     -0.203277631
N       -2.027807998      0.501233845      1.737682369
N        4.058471002     -0.751037155     -0.371999631
Ni       2.051909002     -0.060858155     -0.448318631
C       -0.326847998      0.542706845     -1.874452631
C       -1.680121998      0.693617845     -1.502710631
C        1.795459002     -0.347718155     -2.405020631
H        2.573837002     -1.013813155     -2.812783631
C        0.318353002     -0.686796155     -2.518633631
H       -0.002896998     -0.742494155     -3.593355631
C        1.957230002      1.049335845     -2.211402631
H        2.882482002      1.598509845     -2.450222631
C        0.585816002      1.712875845     -2.330228631
H        0.369952002      1.798264845     -3.431872631
H       -2.019446998      1.743458845     -1.414647631
C        6.183248002     -1.722122155     -0.830230631
H        6.533135002     -1.984490155     -1.848377631
H        7.041047002     -1.788190155     -0.131015631
C       -3.849067998      0.423681845      3.257257369
H       -3.962121998      0.526568845      4.352648369
H       -4.849058998      0.497312845      2.778823369
C       -2.804716998      1.392439845      2.635946369
H       -2.093024998      1.727810845      3.428358369
C        5.422962002     -0.357213155     -0.768885631
H        5.376147002      0.100057845     -1.783562631
O       -3.318946998     -0.905637155      2.984212369
O        5.202166002     -2.720754155     -0.419552631
Ni      -0.528883998      0.442476845      0.235164369
Cl       1.477032002      1.275523845      1.456868369
C       -3.384729998      2.691595845      2.004479369
C       -4.392727998      2.380265845      0.881392369
H       -3.940517998      1.729427845      0.108251369
H       -5.304020998      1.870439845      1.258514369
H       -4.724588998      3.319670845      0.392010369
C       -4.083349998      3.494793845      3.126694369
H       -3.383336998      3.723709845      3.958379369
H       -4.460042998      4.460459845      2.729629369
H       -4.954686998      2.951984845      3.551021369
C       -2.216843998      3.526386845      1.442304369
H       -1.682470998      2.989228845      0.632873369
H       -2.589127998      4.484517845      1.024147369
H       -1.474238998      3.764563845      2.232160369
C        6.049774002      0.714023845      0.186065369
C        6.009721002      0.221459845      1.646832369
H        4.962893002      0.044100845      1.969116369
H        6.580425002     -0.720655155      1.791750369
H        6.455119002      0.980014845      2.323602369
C        5.239467002      2.021672845      0.062754369
H        5.237173002      2.395532845     -0.983611631
H        4.187193002      1.874351845      0.380274369
H        5.686594002      2.812903845      0.700723369
C        7.506677002      0.977680845     -0.254738631
H        7.554698002      1.319098845     -1.311105631
H        7.960019002      1.771381845      0.374945369
H        8.148954002      0.076820845     -0.157399631
C       -2.744123734     -0.314956140     -1.743319039
C       -2.591456634     -1.715894807     -1.608837113
C       -4.016996891      0.145296354     -2.182592648
C       -3.630722058     -2.614035696     -1.907122100
H       -1.639796878     -2.125224548     -1.244100477
C       -5.062091477     -0.732684913     -2.484003947
H       -4.180827370      1.227628872     -2.310654029
C       -4.880793057     -2.129039225     -2.351578616
H       -3.455430297     -3.691628270     -1.779762019
H       -6.037196313     -0.357940111     -2.831518517
C       -5.819640647     -4.323824168     -2.553950821
H       -5.022002096     -4.719657041     -3.222059197
H       -5.599120020     -4.636564727     -1.508533801
H       -6.791303734     -4.754732069     -2.860193295
O       -5.952463251     -2.912371643     -2.667244832
H        0.048941002     -1.655741155     -2.057937631
C        0.425825858      3.156288813     -1.888344756
C       -0.560067015      3.960337541     -2.510281264
C        1.276221743      3.763108081     -0.939875039
C       -0.702523265      5.320462381     -2.187054860
H       -1.210103273      3.516066294     -3.283078357
C        1.142613924      5.126681255     -0.621020252
H        2.037836608      3.148941408     -0.439341822
C        0.153258383      5.910895356     -1.239601696
H       -1.474711225      5.925357672     -2.689386632
H        1.821360360      5.579427028      0.119775345
H        0.053442930      6.979593025     -0.990464720

H C N O Cl 0
def2SVP
****
Ni 0
LANL2DZ
****

Ni 0
LANL2DZ

Eps=4.5

