%nprocshared=12
%mem=24GB
#m06l/gen pseudo=read integral=ultrafine temperature=308 scrf=(read)

Title Card Required

0 4
C        2.403335000     -2.502676000      2.940191000
C        1.449833000     -2.220061000      3.926937000
C        0.231599000     -1.572290000      3.581422000
C        0.045675000     -1.191586000      2.192837000
C        2.145527000     -2.098747000      1.617101000
H       -0.712164000     -1.554562000      5.558493000
H        3.336634000     -3.032606000      3.177318000
H        1.621302000     -2.519173000      4.972491000
C       -0.834384000     -1.301320000      4.494464000
C       -2.160665000     -0.478376000      2.646089000
C       -2.037796000     -0.775547000      4.017167000
H       -2.900321000     -0.620348000      4.681644000
N       -1.108499000     -0.614530000      1.763472000
N        1.001117000     -1.447095000      1.269199000
C        3.000310000     -2.389254000      0.468876000
C       -3.383720000     -0.142338000      1.954916000
N        2.865038000     -1.798911000     -0.688881000
N       -3.398866000     -0.024334000      0.641423000
Ni      -1.477961000      0.228457000      0.006657000
C        0.325574000      0.864422000     -0.053257000
C        0.774912000      1.886144000      0.723806000
C       -1.360478000      0.386983000     -2.595236000
H       -2.107387000     -0.254384000     -3.091318000
C       -1.813115000      1.448108000     -1.753457000
H       -1.053440000      2.191792000     -1.459651000
C       -0.001678000      0.052914000     -2.769087000
H        0.250548000     -0.845045000     -3.352325000
C        1.035344000      0.767804000     -2.085717000
H        0.939401000      1.857579000     -1.960807000
H        0.023274000      2.312632000      1.421991000
C       -5.524929000      0.349313000      1.563143000
H       -5.703552000      1.441896000      1.649797000
H       -6.467088000     -0.192291000      1.767861000
C        4.286726000     -3.701136000     -0.801461000
H        3.780149000     -4.644329000     -1.092742000
H        5.381185000     -3.861084000     -0.813692000
C        3.800787000     -2.474098000     -1.628193000
H        3.209393000     -2.810715000     -2.506918000
C       -4.823665000     -0.032528000      0.236037000
H       -5.000647000      0.742799000     -0.534991000
O        3.894481000     -3.397294000      0.568043000
O       -4.561507000     -0.027079000      2.599302000
Ni       0.784017000     -0.927885000     -0.661994000
Cl      -0.064334000     -3.004028000     -1.400921000
C        4.976804000     -1.586000000     -2.170871000
C        5.888894000     -1.099720000     -1.024344000
H        5.315778000     -0.516714000     -0.273729000
H        6.389768000     -1.937068000     -0.495288000
H        6.689370000     -0.441517000     -1.422378000
C        5.790268000     -2.444701000     -3.168528000
H        5.155117000     -2.792765000     -4.010873000
H        6.621606000     -1.847392000     -3.597394000
H        6.242574000     -3.339465000     -2.692261000
C        4.424835000     -0.365381000     -2.932772000
H        3.955342000      0.363828000     -2.244251000
H        5.247197000      0.165766000     -3.456081000
H        3.675681000     -0.663485000     -3.696203000
C       -5.267861000     -1.418742000     -0.364488000
C       -5.127302000     -2.557997000      0.668397000
H       -4.073548000     -2.681839000      0.992834000
H       -5.753305000     -2.395580000      1.570550000
H       -5.446519000     -3.520298000      0.216251000
C       -4.397522000     -1.747570000     -1.595147000
H       -4.499980000     -0.965483000     -2.374979000
H       -3.324494000     -1.834708000     -1.328634000
H       -4.715430000     -2.713033000     -2.041749000
C       -6.741590000     -1.293703000     -0.812885000
H       -6.869446000     -0.476258000     -1.553983000
H       -7.078609000     -2.237941000     -1.289401000
H       -7.428267000     -1.093564000      0.036789000
C        2.081808000      2.552708000      0.758444000
C        2.211405000      3.826984000      1.366629000
C        3.261516000      1.968031000      0.218654000
C        3.438128000      4.508660000      1.417045000
H        1.320449000      4.302735000      1.809345000
C        4.487859000      2.633539000      0.262444000
H        3.206069000      0.953666000     -0.206460000
C        4.591765000      3.916283000      0.855279000
H        3.484966000      5.496793000      1.896450000
H        5.399519000      2.172307000     -0.147854000
C        5.997807000      5.765963000      1.441978000
H        5.375500000      6.538854000      0.937769000
H        5.747007000      5.752966000      2.526334000
H        7.065517000      6.028981000      1.322424000
O        5.831941000      4.483762000      0.846488000
H        2.072910000      0.452547000     -2.268136000
C       -3.161141000      2.062310000     -1.840901000
C       -4.088457000      1.752667000     -2.868476000
C       -3.525777000      3.070737000     -0.909457000
C       -5.333673000      2.401292000     -2.943341000
H       -3.821519000      1.015078000     -3.640781000
C       -4.768930000      3.716300000     -0.980776000
H       -2.813889000      3.340292000     -0.111910000
C       -5.685950000      3.380074000     -1.996486000
H       -6.030431000      2.145974000     -3.757948000
H       -5.024461000      4.492983000     -0.241907000
H       -6.660968000      3.888853000     -2.057592000

H C N O Cl 0
def2TZVP
****
Ni 0
LANL2DZ
****

Ni 0
LANL2DZ

Eps=4.5

