%nprocshared=12
%mem=24GB
#m06l/gen pseudo=read integral=ultrafine temperature=308 scrf=(read)

Title Card Required

0 2
C        1.761956000     -3.327033000     -2.058778000
C        0.764916000     -4.267977000     -1.792863000
C       -0.470134000     -3.843119000     -1.216380000
C       -0.592864000     -2.447360000     -0.840238000
C        1.548630000     -1.980155000     -1.692935000
H       -1.531616000     -5.754965000     -1.260931000
H        2.687832000     -3.604647000     -2.582980000
H        0.894756000     -5.323353000     -2.078413000
C       -1.603261000     -4.683859000     -1.016336000
C       -2.845790000     -2.758385000     -0.247019000
C       -2.800495000     -4.136717000     -0.546792000
H       -3.703347000     -4.751389000     -0.420211000
N       -1.753752000     -1.943892000     -0.347944000
N        0.431990000     -1.567908000     -1.015039000
C        2.368852000     -0.865222000     -2.145002000
C       -4.040098000     -2.031166000      0.164703000
N        2.090101000      0.373124000     -1.829310000
N       -4.022835000     -0.734464000      0.323630000
Ni      -2.018111000     -0.056451000      0.347754000
C        0.399006000      0.461772000      1.780387000
C        1.751734000      0.554574000      1.396267000
C       -1.763233000     -0.331357000      2.304997000
H       -2.569678000     -0.958378000      2.720142000
C       -0.302679000     -0.734015000      2.427057000
H        0.011367000     -0.799246000      3.503190000
C       -1.865168000      1.069749000      2.096547000
H       -2.765050000      1.661964000      2.329977000
C       -0.465698000      1.672262000      2.222152000
H       -0.255641000      1.751726000      3.325207000
C       -6.174184000     -1.654066000      0.757414000
H       -6.581352000     -1.910060000      1.755256000
H       -6.997746000     -1.691486000      0.015331000
C        3.903734000      0.234674000     -3.351923000
H        4.020762000      0.309890000     -4.449213000
H        4.903204000      0.305712000     -2.871847000
C        2.870986000      1.230751000     -2.755756000
H        2.158871000      1.547652000     -3.555501000
C       -5.373380000     -0.311684000      0.737323000
H       -5.306636000      0.108715000      1.767447000
O        3.354547000     -1.080794000     -3.049372000
O       -5.204193000     -2.680736000      0.391313000
Ni       0.556356000      0.357748000     -0.347273000
Cl      -1.398813000      1.210833000     -1.578367000
C        3.463971000      2.544060000     -2.167146000
C        4.446634000      2.261207000     -1.014544000
H        3.969032000      1.645868000     -0.227620000
H        5.356886000      1.724407000     -1.355216000
H        4.782702000      3.213564000     -0.553738000
C        4.196729000      3.288030000     -3.308494000
H        3.515118000      3.495295000     -4.161020000
H        4.584547000      4.262328000     -2.944317000
H        5.064698000      2.712494000     -3.695162000
C        2.303592000      3.422790000     -1.658613000
H        1.752890000      2.934179000     -0.829486000
H        2.686482000      4.393988000     -1.282329000
H        1.573101000      3.633916000     -2.467462000
C       -5.971622000      0.814976000     -0.170280000
C       -5.985299000      0.378875000     -1.649972000
H       -4.956650000      0.171877000     -2.010562000
H       -6.601710000     -0.530081000     -1.817940000
H       -6.412855000      1.184166000     -2.283025000
C       -5.101816000      2.080933000     -0.018801000
H       -5.084625000      2.431714000      1.035418000
H       -4.056498000      1.888625000     -0.336645000
H       -5.508325000      2.905745000     -0.641240000
C       -7.406290000      1.123501000      0.312832000
H       -7.418542000      1.417269000      1.384544000
H       -7.834569000      1.965369000     -0.270311000
H       -8.090877000      0.257754000      0.187798000
H       -0.075887000     -1.716138000      1.971491000
C       -0.185347000      3.064600000      1.686360000
C        0.867022000      3.822045000      2.256222000
C       -0.982751000      3.675196000      0.694611000
C        1.125643000      5.139165000      1.840168000
H        1.478518000      3.376571000      3.059413000
C       -0.732268000      4.996914000      0.282570000
H       -1.795556000      3.095711000      0.234599000
C        0.322482000      5.733830000      0.849491000
H        1.948205000      5.708850000      2.302377000
H       -1.370985000      5.454168000     -0.490558000
H        0.513466000      6.770350000      0.527644000
H        2.128615000      1.589407000      1.286452000
C        2.837777000     -0.436199000      1.599900000
C        4.122626000      0.046502000      1.954143000
C        2.693151000     -1.847941000      1.513358000
C        5.206108000     -0.807827000      2.221567000
C        3.759424000     -2.713103000      1.774459000
C        5.030856000     -2.205992000      2.133350000
H        4.278245000      1.133618000      2.047768000
H        1.727865000     -2.280041000      1.218089000
H        6.176112000     -0.372430000      2.500816000
H        3.632418000     -3.804062000      1.698108000
O        6.006851000     -3.130538000      2.367185000
C        7.305054000     -2.670611000      2.725222000
H        7.754935000     -2.039645000      1.926021000
H        7.290842000     -2.090899000      3.675382000
H        7.928440000     -3.573762000      2.864331000

H C N O Cl 0
def2TZVP
****
Ni 0
LANL2DZ
****

Ni 0
LANL2DZ

Eps=4.5

