%nprocshared=12
%mem=20GB
%chk=Pro_R_E_ts1.chk
#opt=(calcfc,ts,noeigen) freq=noraman bp86/gen pseudo=read integral=ultrafine temperature=308 scrf=(read)

Title Card Required

0 2
C -2.37300000 -1.29600000 -3.21600000
C -1.45200000 -0.70700000 -4.08600000
C -0.20400000 -0.24300000 -3.60400000
C 0.04600000 -0.37400000 -2.19200000
C -2.04900000 -1.39400000 -1.85900000
H 0.67700000 0.42400000 -5.48500000
H -3.33100000 -1.68000000 -3.56900000
H -1.67700000 -0.61800000 -5.15200000
C 0.84200000 0.30100000 -4.41200000
C 2.26200000 0.40500000 -2.46600000
C 2.07500000 0.59900000 -3.84600000
H 2.91400000 0.94300000 -4.45400000
N 1.22400000 0.00700000 -1.63900000
N -0.86100000 -0.93300000 -1.36300000
C -2.84200000 -2.02900000 -0.82000000
C 3.48000000 0.40700000 -1.72800000
N -2.53400000 -1.88200000 0.44000000
N 3.46600000 -0.01400000 -0.46400000
Ni 1.63500000 -0.08000000 0.22500000
C -0.13100000 0.57100000 0.66500000
C -0.63800000 1.80100000 0.39900000
C 2.00000000 -0.23600000 2.17000000
H 3.08800000 -0.25500000 2.27300000
C 1.27200000 0.98800000 2.35300000
H 0.33400000 0.90800000 2.90700000
C 1.27900000 -1.48200000 2.12100000
H 1.84100000 -2.39200000 1.90200000
C -0.09700000 -1.63500000 2.45100000
H -0.57400000 -0.86900000 3.07100000
H 0.06700000 2.63000000 0.57900000
C 5.59700000 0.73400000 -1.09900000
H 5.72000000 1.77200000 -0.74900000
H 6.55900000 0.34900000 -1.45800000
C -4.12200000 -3.61300000 0.09800000
H -3.70000000 -4.62100000 -0.02900000
H -5.21300000 -3.67300000 0.20500000
C -3.40200000 -2.80400000 1.21500000
H -2.73400000 -3.47300000 1.78600000
C 4.88800000 -0.16200000 -0.05500000
H 5.03000000 0.24700000 0.96100000
O -3.84400000 -2.87700000 -1.14300000
O 4.68200000 0.75800000 -2.24500000
Ni -0.50700000 -1.27300000 0.54700000
Cl -0.03200000 -3.57900000 0.06500000
C -4.35800000 -2.09600000 2.23000000
C -5.38500000 -1.19600000 1.51200000
H -4.88400000 -0.39800000 0.94400000
H -6.03000000 -1.76100000 0.82000000
H -6.04400000 -0.71200000 2.25100000
C -5.09600000 -3.19100000 3.03200000
H -4.38400000 -3.85100000 3.55500000
H -5.74900000 -2.73100000 3.79200000
H -5.73500000 -3.82100000 2.39100000
C -3.52800000 -1.23800000 3.20500000
H -2.97200000 -0.45500000 2.66800000
H -4.18900000 -0.75000000 3.94000000
H -2.80300000 -1.85600000 3.75900000
C 5.39200000 -1.65000000 -0.04300000
C 5.32700000 -2.28000000 -1.45000000
H 4.29300000 -2.29600000 -1.83000000
H 5.95800000 -1.75000000 -2.18100000
H 5.67700000 -3.32400000 -1.40600000
C 4.51900000 -2.48600000 0.91200000
H 4.52700000 -2.07400000 1.93500000
H 3.48000000 -2.53300000 0.55400000
H 4.90000000 -3.51900000 0.96800000
C 6.84700000 -1.65700000 0.47600000
H 6.91700000 -1.21200000 1.48300000
H 7.21800000 -2.69300000 0.54300000
H 7.53700000 -1.10800000 -0.18700000
C -1.93500000 2.27600000 -0.07300000
C -2.07100000 3.64500000 -0.40200000
C -3.08100000 1.45900000 -0.22500000
C -3.27100000 4.17800000 -0.88300000
H -1.20700000 4.30600000 -0.28400000
C -4.28100000 1.97600000 -0.69900000
H -3.01200000 0.40700000 0.05400000
C -4.38900000 3.34000000 -1.03900000
H -3.32400000 5.24000000 -1.12900000
H -5.16500000 1.34400000 -0.81400000
C -5.76900000 5.12200000 -1.85000000
H -5.60000000 5.78300000 -0.98000000
H -5.08500000 5.41200000 -2.66700000
H -6.80700000 5.22900000 -2.19000000
O -5.61700000 3.74400000 -1.50100000
H -0.42800000 -2.66000000 2.63700000
C 1.87000000 2.32200000 2.44100000
C 3.09000000 2.67100000 1.81300000
C 1.19600000 3.32900000 3.17300000
C 3.63400000 3.94900000 1.95800000
H 3.58700000 1.93300000 1.18000000
C 1.73600000 4.61100000 3.30900000
H 0.24100000 3.08700000 3.65000000
C 2.96300000 4.92700000 2.70900000
H 4.58100000 4.19300000 1.46900000
H 1.19800000 5.36700000 3.88700000
H 3.38800000 5.92800000 2.81500000

H C N O Cl 0
def2SVP
****
Ni 0
LANL2DZ
****

Ni 0
LANL2DZ

Eps=4.5

