%nprocshared=12
%mem=24GB
#m06l/gen pseudo=read integral=ultrafine temperature=308 scrf=(read)

Title Card Required

0 4
C       -1.886029000     -3.145451000      2.137798000
C       -0.912828000     -4.123982000      1.907511000
C        0.332943000     -3.754133000      1.319743000
C        0.491240000     -2.377656000      0.875089000
C       -1.655403000     -1.830320000      1.692655000
H        1.348154000     -5.682888000      1.478284000
H       -2.811958000     -3.373448000      2.685301000
H       -1.067775000     -5.162770000      2.237873000
C        1.446725000     -4.630155000      1.171191000
C        2.751897000     -2.778999000      0.330652000
C        2.663647000     -4.137963000      0.685146000
H        3.551859000     -4.781164000      0.603267000
N        1.674482000     -1.927263000      0.388623000
N       -0.533664000     -1.484851000      0.968911000
C       -2.455177000     -0.686810000      2.093390000
C        3.973686000     -2.098680000     -0.064157000
N       -2.157173000      0.539496000      1.743837000
N        3.994129000     -0.812144000     -0.303158000
Ni       2.025146000     -0.073698000     -0.353330000
C       -0.390938000      0.455606000     -1.846237000
C       -1.741455000      0.578276000     -1.484658000
C        1.770542000     -0.381344000     -2.318418000
H        2.572582000     -1.034530000     -2.698592000
C        0.306439000     -0.770834000     -2.433655000
H        0.000850000     -0.877100000     -3.508603000
C        1.891038000      1.019488000     -2.152352000
H        2.802727000      1.591679000     -2.388303000
C        0.502986000      1.642551000     -2.292236000
H        0.301161000      1.713179000     -3.397138000
H       -2.101277000      1.620791000     -1.391903000
C        6.141616000     -1.791541000     -0.575184000
H        6.573673000     -2.106194000     -1.545934000
H        6.941577000     -1.808646000      0.192739000
C       -3.984735000      0.477277000      3.249190000
H       -4.119518000      0.589927000      4.341308000
H       -4.974577000      0.549968000      2.749328000
C       -2.926098000      1.436482000      2.640171000
H       -2.218025000      1.759776000      3.441574000
C        5.374474000     -0.431470000     -0.649527000
H        5.382292000     -0.046598000     -1.695635000
O       -3.451989000     -0.854491000      2.998374000
O        5.138389000     -2.776007000     -0.188780000
Ni      -0.558120000      0.446593000      0.334467000
Cl       1.344337000      1.185007000      1.566756000
C       -3.483484000      2.745830000      2.009842000
C       -4.457784000      2.454091000      0.852618000
H       -3.983273000      1.807939000      0.088840000
H       -5.383243000      1.945172000      1.194839000
H       -4.767588000      3.400612000      0.362297000
C       -4.211905000      3.538384000      3.120594000
H       -3.535789000      3.753069000      3.975702000
H       -4.572367000      4.511050000      2.725208000
H       -5.097592000      2.993935000      3.511904000
C       -2.297362000      3.583556000      1.491534000
H       -1.749223000      3.061699000      0.681019000
H       -2.652113000      4.553437000      1.085587000
H       -1.570315000      3.798736000      2.302535000
C        5.947744000      0.713023000      0.252580000
C        5.868795000      0.326623000      1.743649000
H        4.817265000      0.148372000      2.049158000
H        6.456779000     -0.587226000      1.974958000
H        6.274367000      1.144357000      2.375230000
C        5.117313000      1.991068000      0.009569000
H        5.167947000      2.305902000     -1.054871000
H        4.051256000      1.831115000      0.271996000
H        5.504267000      2.828469000      0.627557000
C        7.413137000      0.977001000     -0.159210000
H        7.490828000      1.232356000     -1.238036000
H        7.826249000      1.830564000      0.417874000
H        8.071335000      0.103316000      0.033273000
C       -2.842823000     -0.400365000     -1.656393000
C       -2.723637000     -1.806026000     -1.538850000
C       -4.124888000      0.101178000     -2.017445000
C       -3.808075000     -2.669210000     -1.770335000
H       -1.765650000     -2.247546000     -1.234078000
C       -5.213326000     -0.742080000     -2.255899000
H       -4.261499000      1.188198000     -2.136365000
C       -5.068007000     -2.143695000     -2.134085000
H       -3.658814000     -3.752095000     -1.655419000
H       -6.195435000     -0.336138000     -2.543550000
C       -6.088951000     -4.307352000     -2.269066000
H       -5.348759000     -4.731452000     -2.983999000
H       -5.814049000     -4.622359000     -1.237517000
H       -7.092251000     -4.705142000     -2.511460000
O       -6.181515000     -2.891423000     -2.382021000
H        0.064834000     -1.730042000     -1.939430000
C        0.246959000      3.045223000     -1.770493000
C       -0.786373000      3.820458000     -2.350839000
C        1.052081000      3.644792000     -0.778252000
C       -1.018660000      5.145189000     -1.943990000
H       -1.402761000      3.383367000     -3.154781000
C        0.827536000      4.973811000     -0.375102000
H        1.855390000      3.054091000     -0.315424000
C       -0.208284000      5.728773000     -0.952644000
H       -1.826206000      5.729439000     -2.414205000
H        1.472242000      5.422623000      0.397846000
H       -0.378981000      6.771048000     -0.638389000

H C N O Cl 0
def2TZVP
****
Ni 0
LANL2DZ
****

Ni 0
LANL2DZ

Eps=4.5

