%nprocshared=24
%mem=24GB
%chk=Pro_R_E_e.chk
#opt=(MaxCycles=500) freq=noraman bp86/gen pseudo=read integral=ultrafine temperature=308 scrf=(read)

Title Card Required

0 2
C        0.032415000      4.758442000     -0.441366000
C       -1.238803000      4.995545000     -0.971412000
C       -2.185978000      3.929430000     -1.032156000
C       -1.735356000      2.605314000     -0.643687000
C        0.377591000      3.447806000     -0.046815000
H       -3.916981000      5.062562000     -1.740660000
H        0.746053000      5.579113000     -0.277688000
H       -1.543342000      6.009189000     -1.274696000
C       -3.552295000      4.078068000     -1.408738000
C       -3.910641000      1.745219000     -0.888562000
C       -4.422661000      2.987149000     -1.319363000
H       -5.490151000      3.081183000     -1.565750000
N       -2.589549000      1.552432000     -0.599236000
N       -0.453336000      2.375232000     -0.246797000
C        1.506727000      3.119431000      0.814001000
C       -4.701824000      0.539527000     -0.674847000
N        1.766350000      1.893321000      1.189452000
N       -4.157642000     -0.554648000     -0.211641000
Ni      -2.060277000     -0.390938000     -0.273971000
C        0.424318000     -0.598071000     -1.701299000
C        1.608843000      0.178820000     -1.668052000
C       -1.890210000     -0.930624000     -2.176898000
H       -2.870742000     -0.875278000     -2.678695000
C       -0.697089000     -0.131473000     -2.649394000
H       -0.410451000     -0.430169000     -3.693497000
C       -1.428149000     -2.044593000     -1.434717000
H       -2.011228000     -2.963210000     -1.260436000
C        0.108207000     -2.109871000     -1.535246000
H        0.332328000     -2.531663000     -2.552852000
C       -6.490332000     -0.818236000     -0.590440000
H       -6.971756000     -1.264308000     -1.482535000
H       -7.252791000     -0.702565000      0.207072000
C        3.117367000      3.475052000      2.331546000
H        3.072395000      4.010840000      3.298132000
H        4.139099000      3.571358000      1.906604000
C        2.624520000      2.004052000      2.399399000
H        1.930253000      1.888512000      3.267022000
C       -5.210053000     -1.583098000     -0.123215000
H       -4.964243000     -2.394322000     -0.847263000
O        2.187400000      4.124800000      1.417741000
O       -6.024936000      0.517185000     -0.951545000
Ni       0.469402000      0.574454000      0.093975000
Cl      -1.042665000     -0.188710000      1.877277000
C        3.737262000      0.935333000      2.603392000
C        4.823654000      1.007607000      1.513388000
H        4.388366000      0.904457000      0.500549000
H        5.396569000      1.957970000      1.550183000
H        5.554968000      0.184727000      1.651765000
C        4.377935000      1.189877000      3.989053000
H        3.622382000      1.143830000      4.802342000
H        5.149057000      0.420272000      4.201894000
H        4.878608000      2.180211000      4.042105000
C        3.087710000     -0.462715000      2.598909000
H        2.647245000     -0.699586000      1.609741000
H        3.844478000     -1.242643000      2.825917000
H        2.279774000     -0.536331000      3.356861000
C       -5.301846000     -2.253652000      1.287871000
C       -5.513207000     -1.192150000      2.387038000
H       -4.672634000     -0.468347000      2.403852000
H       -6.457846000     -0.623416000      2.250526000
H       -5.566113000     -1.677518000      3.383856000
C       -3.985282000     -3.013809000      1.555153000
H       -3.814847000     -3.801519000      0.790317000
H       -3.113619000     -2.327513000      1.541460000
H       -4.020420000     -3.510577000      2.547636000
C       -6.475551000     -3.258315000      1.278000000
H       -6.351130000     -4.018532000      0.476976000
H       -6.526691000     -3.797938000      2.246761000
H       -7.457675000     -2.761314000      1.128324000
H       -0.841034000      0.968100000     -2.665296000
C        0.778421000     -3.078202000     -0.570899000
C        1.465180000     -4.196027000     -1.103793000
C        0.670476000     -2.975359000      0.833761000
C        2.048710000     -5.164820000     -0.268963000
H        1.547605000     -4.302856000     -2.198835000
C        1.256634000     -3.942191000      1.671565000
H        0.115535000     -2.131459000      1.274775000
C        1.950409000     -5.038650000      1.128509000
H        2.578861000     -6.022841000     -0.713296000
H        1.161102000     -3.837349000      2.764733000
H        2.404360000     -5.794893000      1.789201000
H        2.604684799     -0.168182819     -1.901050188
C        1.990180531      1.374716120     -2.560248255
C        3.328636625      1.782674832     -2.688452565
C        1.009542141      2.088894017     -3.269212041
C        3.674096377      2.865037835     -3.495900293
C        1.354378676      3.171339311     -4.076815839
C        2.688475987      3.564610265     -4.194015034
H        4.103111129      1.245512707     -2.149833497
H       -0.031080046      1.791401915     -3.185138751
H        4.715541675      3.162322522     -3.579689210
H        0.579020641      3.708519371     -4.615577919
O        3.045051341      4.682850793     -5.028276467
C        3.006583425      5.887114397     -4.239689509
H        2.011415457      6.345740098     -4.259978301
H        3.255976231      5.685909952     -3.191630569
H        3.720380802      6.630787974     -4.611914693

H C N O Cl 0
def2SVP
****
Ni 0
LANL2DZ
****

Ni 0
LANL2DZ

Eps=4.5

